*SPEF "IEEE 1481.1999"
*DESIGN "barrel_shifter_8bit"
*DATE "10:38:07 Sunday November 20, 2022"
*VENDOR "unknown"
*PROGRAM "qrouter"
*VERSION "unknown"
*DESIGN_FLOW "qflow"
*DIVIDER /
*DELIMITER :
*BUS_DELIMITER <>
*T_UNIT 1 PS
*C_UNIT 1 FF
*R_UNIT 1 OHM
*L_UNIT 1 HENRY

*NAME_MAP
*1 ctrl[2]
*2 NAND2X1_19
*3 OAI21X1_19
*4 NAND2X1_18
*5 NAND2X1_20
*6 OAI21X1_23
*7 NAND2X1_24
*8 NAND2X1_22
*9 OAI21X1_21
*10 OAI21X1_24
*11 NAND2X1_23
*12 OAI21X1_22
*13 NAND2X1_21
*14 OAI21X1_2
*15 NAND2X1_1
*16 OAI21X1_1
*17 OAI21X1_20
*18 ctrl[1]
*19 NAND2X1_7
*20 OAI21X1_10
*21 OAI21X1_8
*22 NAND2X1_9
*23 OAI21X1_6
*24 NAND2X1_5
*25 NAND2X1_8
*26 OAI21X1_9
*27 OAI21X1_5
*28 OAI21X1_3
*29 NAND2X1_2
*30 NAND2X1_3
*31 OAI21X1_4
*32 NAND2X1_6
*33 OAI21X1_7
*34 NAND2X1_4
*35 ctrl[0]
*36 OAI21X1_14
*37 NAND2X1_17
*38 NAND2X1_13
*39 NAND2X1_14
*40 OAI21X1_17
*41 NAND2X1_15
*42 NAND2X1_12
*43 NAND2X1_11
*44 OAI21X1_12
*45 NAND2X1_10
*46 OAI21X1_11
*47 OAI21X1_13
*48 OAI21X1_16
*49 OAI21X1_15
*50 OAI21X1_18
*51 NAND2X1_16
*52 ins_16_out
*53 OAI21X1_1
*54 INVX1_8
*55 NAND2X1_6
*56 in[7]
*57 NAND2X1_21
*58 INVX1_1
*59 ins_17_out
*60 OAI21X1_2
*61 NAND2X1_7
*62 INVX1_9
*63 ins_12_out
*64 OAI21X1_21
*65 INVX1_4
*66 NAND2X1_2
*67 ins_13_out
*68 OAI21X1_22
*69 NAND2X1_3
*70 INVX1_5
*71 ins_00_in1
*72 OAI21X1_4
*73 INVX1_11
*74 NAND2X1_10
*75 ins_14_out
*76 OAI21X1_23
*77 NAND2X1_4
*78 INVX1_6
*79 ins_01_in1
*80 OAI21X1_5
*81 NAND2X1_11
*82 INVX1_12
*83 ins_15_out
*84 OAI21X1_24
*85 INVX1_7
*86 NAND2X1_5
*87 ins_02_in1
*88 OAI21X1_6
*89 NAND2X1_12
*90 INVX1_13
*91 ins_03_in1
*92 OAI21X1_7
*93 INVX1_14
*94 NAND2X1_13
*95 ins_04_in1
*96 OAI21X1_8
*97 NAND2X1_14
*98 INVX1_15
*99 ins_05_in1
*100 OAI21X1_9
*101 NAND2X1_15
*102 INVX1_16
*103 ins_06_in1
*104 OAI21X1_10
*105 NAND2X1_16
*106 INVX1_17
*107 in[4]
*108 INVX1_22
*109 NAND2X1_18
*110 in[5]
*111 NAND2X1_19
*112 INVX1_23
*113 in[6]
*114 NAND2X1_20
*115 INVX1_24
*116 _28_
*117 INVX1_24
*118 OAI21X1_1
*119 _29_
*120 NAND2X1_24
*121 OAI21X1_1
*122 _30_
*123 INVX1_1
*124 OAI21X1_2
*125 _31_
*126 NAND2X1_1
*127 OAI21X1_2
*128 ins_10_out
*129 OAI21X1_19
*130 INVX1_2
*131 _32_
*132 INVX1_2
*133 OAI21X1_3
*134 _33_
*135 NAND2X1_2
*136 OAI21X1_3
*137 ins_00_in0
*138 OAI21X1_3
*139 INVX1_10
*140 ins_11_out
*141 OAI21X1_20
*142 INVX1_3
*143 _34_
*144 INVX1_3
*145 OAI21X1_4
*146 _35_
*147 NAND2X1_3
*148 OAI21X1_4
*149 _36_
*150 INVX1_4
*151 OAI21X1_5
*152 _37_
*153 NAND2X1_4
*154 OAI21X1_5
*155 _38_
*156 INVX1_5
*157 OAI21X1_6
*158 _39_
*159 NAND2X1_5
*160 OAI21X1_6
*161 _40_
*162 INVX1_6
*163 OAI21X1_7
*164 _41_
*165 NAND2X1_6
*166 OAI21X1_7
*167 _42_
*168 INVX1_7
*169 OAI21X1_8
*170 _43_
*171 NAND2X1_7
*172 OAI21X1_8
*173 _44_
*174 INVX1_8
*175 OAI21X1_9
*176 _45_
*177 NAND2X1_8
*178 OAI21X1_9
*179 _46_
*180 INVX1_9
*181 OAI21X1_10
*182 _47_
*183 NAND2X1_9
*184 OAI21X1_10
*185 ins_00_out
*186 OAI21X1_11
*187 BUFX2_1
*188 out[0]
*189 BUFX2_1
*190 ins_01_out
*191 OAI21X1_12
*192 BUFX2_2
*193 out[1]
*194 BUFX2_2
*195 ins_02_out
*196 OAI21X1_13
*197 BUFX2_3
*198 out[2]
*199 BUFX2_3
*200 ins_03_out
*201 OAI21X1_14
*202 BUFX2_4
*203 out[3]
*204 BUFX2_4
*205 ins_04_out
*206 OAI21X1_15
*207 BUFX2_5
*208 out[4]
*209 BUFX2_5
*210 ins_05_out
*211 OAI21X1_16
*212 BUFX2_6
*213 out[5]
*214 BUFX2_6
*215 ins_06_out
*216 OAI21X1_17
*217 BUFX2_7
*218 out[6]
*219 BUFX2_7
*220 ins_07_out
*221 OAI21X1_18
*222 BUFX2_8
*223 out[7]
*224 BUFX2_8
*225 _0_
*226 INVX1_10
*227 OAI21X1_11
*228 _1_
*229 NAND2X1_10
*230 OAI21X1_11
*231 _2_
*232 INVX1_11
*233 OAI21X1_12
*234 _3_
*235 NAND2X1_11
*236 OAI21X1_12
*237 _4_
*238 INVX1_12
*239 OAI21X1_13
*240 _5_
*241 NAND2X1_12
*242 OAI21X1_13
*243 _6_
*244 INVX1_13
*245 OAI21X1_14
*246 _7_
*247 NAND2X1_13
*248 OAI21X1_14
*249 _8_
*250 INVX1_14
*251 OAI21X1_15
*252 _9_
*253 NAND2X1_14
*254 OAI21X1_15
*255 _10_
*256 INVX1_15
*257 OAI21X1_16
*258 _11_
*259 NAND2X1_15
*260 OAI21X1_16
*261 _12_
*262 INVX1_16
*263 OAI21X1_17
*264 _13_
*265 NAND2X1_16
*266 OAI21X1_17
*267 _14_
*268 INVX1_17
*269 OAI21X1_18
*270 _15_
*271 NAND2X1_17
*272 OAI21X1_18
*273 in[0]
*274 INVX1_18
*275 _16_
*276 INVX1_18
*277 OAI21X1_19
*278 _17_
*279 NAND2X1_18
*280 OAI21X1_19
*281 in[1]
*282 INVX1_19
*283 _18_
*284 INVX1_19
*285 OAI21X1_20
*286 _19_
*287 NAND2X1_19
*288 OAI21X1_20
*289 in[2]
*290 INVX1_20
*291 _20_
*292 INVX1_20
*293 OAI21X1_21
*294 _21_
*295 NAND2X1_20
*296 OAI21X1_21
*297 in[3]
*298 INVX1_21
*299 _22_
*300 INVX1_21
*301 OAI21X1_22
*302 _23_
*303 NAND2X1_21
*304 OAI21X1_22
*305 _24_
*306 INVX1_22
*307 OAI21X1_23
*308 _25_
*309 NAND2X1_22
*310 OAI21X1_23
*311 _26_
*312 INVX1_23
*313 OAI21X1_24
*314 _27_
*315 NAND2X1_23
*316 OAI21X1_24

*PORTS
*1 I
*18 I
*35 I
*56 I
*107 I
*110 I
*113 I
*188 O
*193 O
*198 O
*203 O
*208 O
*213 O
*218 O
*223 O
*273 I
*281 I
*289 I
*297 I

*D_NET *1 0.00252168
*CONN
*P *1 O
*I *2:B I *L 0.0180112
*I *3:A I *L 0.0265312
*I *4:B I *L 0.0180112
*I *5:B I *L 0.0180112
*I *6:A I *L 0.0265312
*I *7:B I *L 0.0180112
*I *8:B I *L 0.0180112
*I *9:A I *L 0.0265312
*I *10:A I *L 0.0265312
*I *11:B I *L 0.0180112
*I *12:A I *L 0.0265312
*I *13:B I *L 0.0180112
*I *14:A I *L 0.0265312
*I *15:B I *L 0.0180112
*I *16:A I *L 0.0265312
*I *17:A I *L 0.0265312
*CAP
1 1_1 3.36e-05
2 1_2 5.424e-05
3 1_3 5.76e-05
4 1_4 0.0003876
5 1_5 1.344e-05
6 1_6 6.72e-05
7 1_7 6.12e-05
8 1_8 6.048e-05
9 1_9 6.12e-05
10 1_10 2.688e-05
11 1_11 0
12 1_12 6.72e-05
13 1_13 0.000204
14 1_14 2.04e-05
15 1_15 1.344e-05
16 1_16 3.36e-05
17 1_17 0
18 1_18 6.048e-05
19 1_19 8.136e-05
20 1_20 0.000204
21 1_21 0.0001188
22 1_22 4.032e-05
23 1_23 0
24 1_24 0.0002244
25 1_25 3.264e-05
26 1_26 8.808e-05
27 1_27 0
28 1_28 0.00010152
29 1_29 0.000204
30 1_30 2.04e-05
31 1_31 0.0001836
*RES
1 *1 1_1 0.933333
2 1_1 1_2 0.84
3 1_2 1_3 0.373333
4 1_3 *2:B 0
5 1_2 1_4 4.43333
6 1_4 1_5 0.373333
7 1_5 *3:A 0
8 1_4 1_6 1.86667
9 1_6 1_7 0.7
10 1_7 *4:B 0
11 1_6 1_8 1.68
12 1_8 1_9 0.7
13 1_9 *5:B 0
14 1_8 1_10 0.746667
15 1_10 1_11 0
16 1_11 *6:A 0
17 1_10 1_12 1.86667
18 1_12 1_13 2.33333
19 1_13 1_14 0.233333
20 1_14 *7:B 0
21 1_14 1_15 0.373333
22 1_15 1_16 0.933333
23 1_16 1_17 0
24 1_17 *8:B 0
25 1_16 1_18 1.68
26 1_18 1_19 1.26
27 1_19 *9:A 0
28 1_18 1_20 2.33333
29 1_20 1_21 1.07333
30 1_21 *10:A 0
31 1_20 1_22 1.12
32 1_22 1_23 0
33 1_23 *11:B 0
34 1_23 1_24 2.56667
35 1_24 1_25 0.373333
36 1_25 *12:A 0
37 1_24 1_26 1.44667
38 1_26 1_27 0
39 1_27 *13:B 0
40 1_27 1_28 1.82
41 1_28 *14:A 0
42 1_15 1_29 2.33333
43 1_29 *15:B 0
44 1_12 1_30 0.233333
45 1_30 *16:A 0
46 1_1 1_31 2.1
47 1_31 *17:A 0
*END
*D_NET *18 0.0027612
*CONN
*P *18 O
*I *19:B I *L 0.0180112
*I *20:A I *L 0.0265312
*I *21:A I *L 0.0265312
*I *22:B I *L 0.0180112
*I *23:A I *L 0.0265312
*I *24:B I *L 0.0180112
*I *25:B I *L 0.0180112
*I *26:A I *L 0.0265312
*I *27:A I *L 0.0265312
*I *28:A I *L 0.0265312
*I *29:B I *L 0.0180112
*I *30:B I *L 0.0180112
*I *31:A I *L 0.0265312
*I *32:B I *L 0.0180112
*I *33:A I *L 0.0265312
*I *34:B I *L 0.0180112
*CAP
1 18_1 0.00018336
2 18_2 2.04e-05
3 18_3 8.808e-05
4 18_4 2.04e-05
5 18_5 0.0001632
6 18_6 5.76e-05
7 18_7 6.12e-05
8 18_8 2.04e-05
9 18_9 0.00016176
10 18_10 0.0001152
11 18_11 8.4e-06
12 18_12 4.08e-05
13 18_13 0.0001836
14 18_14 2.688e-05
15 18_15 7.464e-05
16 18_16 2.04e-05
17 18_17 4.08e-05
18 18_18 8.736e-05
19 18_19 4.08e-05
20 18_20 8.064e-05
21 18_21 1.344e-05
22 18_22 0.00016968
23 18_23 9e-05
24 18_24 0.0004488
25 18_25 6.12e-05
26 18_26 3.36e-05
27 18_27 0.00019008
28 18_28 4.08e-05
29 18_29 8.4e-06
30 18_30 8.784e-05
31 18_31 0.00012144
*RES
1 *18 18_1 2.42667
2 18_1 18_2 0.233333
3 18_2 *19:B 0
4 18_2 18_3 1.44667
5 18_3 18_4 0.233333
6 18_4 *20:A 0
7 18_4 18_5 1.86667
8 18_5 18_6 0.373333
9 18_6 *21:A 0
10 18_5 18_7 0.7
11 18_7 18_8 0.233333
12 18_8 *22:B 0
13 18_8 18_9 3.82667
14 18_9 18_10 1.86667
15 18_10 *23:A 0
16 18_9 18_11 0.233333
17 18_11 18_12 0.466667
18 18_12 *24:B 0
19 18_11 18_13 2.1
20 18_13 18_14 0.746667
21 18_14 *25:B 0
22 18_13 18_15 1.07333
23 18_15 18_16 0.233333
24 18_16 *26:A 0
25 18_16 18_17 0.466667
26 18_17 18_18 2.42667
27 18_18 18_19 0.466667
28 18_19 *27:A 0
29 18_18 18_20 2.24
30 18_20 18_21 0.373333
31 18_21 18_22 2.38
32 18_22 *28:A 0
33 18_21 18_23 1.16667
34 18_23 *29:B 0
35 18_20 18_24 5.13333
36 18_24 18_25 0.7
37 18_25 *30:B 0
38 18_24 18_26 0.933333
39 18_26 *31:A 0
40 18_17 18_27 2.61333
41 18_27 18_28 0.466667
42 18_28 *32:B 0
43 18_27 18_29 0.233333
44 18_29 18_30 1.77333
45 18_30 *33:A 0
46 18_29 18_31 2.70667
47 18_31 *34:B 0
*END
*D_NET *35 0.00266256
*CONN
*P *35 O
*I *36:A I *L 0.0265312
*I *37:B I *L 0.0180112
*I *38:B I *L 0.0180112
*I *39:B I *L 0.0180112
*I *40:A I *L 0.0265312
*I *41:B I *L 0.0180112
*I *42:B I *L 0.0180112
*I *43:B I *L 0.0180112
*I *44:A I *L 0.0265312
*I *45:B I *L 0.0180112
*I *46:A I *L 0.0265312
*I *47:A I *L 0.0265312
*I *48:A I *L 0.0265312
*I *49:A I *L 0.0265312
*I *50:A I *L 0.0265312
*I *51:B I *L 0.0180112
*CAP
1 35_1 2.016e-05
2 35_2 0.00019008
3 35_3 0
4 35_4 9.48e-05
5 35_5 2.04e-05
6 35_6 0.00025704
7 35_7 2.04e-05
8 35_8 4.08e-05
9 35_9 4.728e-05
10 35_10 4.08e-05
11 35_11 4.032e-05
12 35_12 1.344e-05
13 35_13 4.08e-05
14 35_14 8.784e-05
15 35_15 2.04e-05
16 35_16 0.00025128
17 35_17 4.08e-05
18 35_18 3.36e-05
19 35_19 0.00016128
20 35_20 4.08e-05
21 35_21 7.44e-05
22 35_22 0
23 35_23 2.016e-05
24 35_24 8.808e-05
25 35_25 0.0002856
26 35_26 0.00021624
27 35_27 0.0001836
28 35_28 0.00021048
29 35_29 0
30 35_30 0
31 35_31 0.00012168
*RES
1 *35 35_1 0.56
2 35_1 35_2 2.61333
3 35_2 35_3 0
4 35_3 *36:A 0
5 35_3 35_4 1.63333
6 35_4 35_5 0.233333
7 35_5 *37:B 0
8 35_5 35_6 2.94
9 35_6 35_7 0.233333
10 35_7 *38:B 0
11 35_7 35_8 0.466667
12 35_8 35_9 0.98
13 35_9 35_10 0.466667
14 35_10 *39:B 0
15 35_9 35_11 1.12
16 35_11 35_12 0.373333
17 35_12 35_13 0.466667
18 35_13 *40:A 0
19 35_12 35_14 1.77333
20 35_14 35_15 0.233333
21 35_15 *41:B 0
22 35_15 35_16 3.31333
23 35_16 35_17 0.466667
24 35_17 *42:B 0
25 35_16 35_18 0.933333
26 35_18 35_19 4.48
27 35_19 35_20 0.466667
28 35_20 *43:B 0
29 35_19 35_21 1.4
30 35_21 35_22 0
31 35_22 *44:A 0
32 35_21 35_23 0.56
33 35_23 35_24 1.44667
34 35_24 *45:B 0
35 35_23 35_25 3.26667
36 35_25 *46:A 0
37 35_18 35_26 2.47333
38 35_26 *47:A 0
39 35_11 35_27 2.1
40 35_27 *48:A 0
41 35_8 35_28 2.84667
42 35_28 *49:A 0
43 35_1 35_29 0
44 35_29 35_30 0
45 35_30 *50:A 0
46 35_30 35_31 2.38
47 35_31 *51:B 0
*END
*D_NET *52 0.00023304
*CONN
*I *53:Y O *D OAI21X1
*I *54:A I *L 0.0134094
*I *55:A I *L 0.0177118
*CAP
1 52_1 0.00017544
2 52_2 5.76e-05
*RES
1 *53:Y 52_1 2.00667
2 52_1 *54:A 0
3 52_1 52_2 0.373333
4 52_2 *55:A 0
*END
*D_NET *56 0.0003132
*CONN
*P *56 O
*I *57:A I *L 0.0177118
*I *58:A I *L 0.0134094
*CAP
1 56_1 0.0001836
2 56_2 0.0001296
*RES
1 *56 56_1 2.1
2 56_1 *57:A 0
3 56_1 56_2 0.84
4 56_2 *58:A 0
*END
*D_NET *59 0.00018864
*CONN
*I *60:Y O *D OAI21X1
*I *61:A I *L 0.0177118
*I *62:A I *L 0.0134094
*CAP
1 59_1 0.00014496
2 59_2 0
3 59_3 4.368e-05
*RES
1 *60:Y 59_1 2.8
2 59_1 59_2 0
3 59_2 *61:A 0
4 59_1 59_3 1.21333
5 59_3 *62:A 0
*END
*D_NET *63 0.00019968
*CONN
*I *64:Y O *D OAI21X1
*I *65:A I *L 0.0134094
*I *66:A I *L 0.0177118
*CAP
1 63_1 5.76e-05
2 63_2 0.00014208
*RES
1 *64:Y 63_1 0.373333
2 63_1 *65:A 0
3 63_1 63_2 1.49333
4 63_2 *66:A 0
*END
*D_NET *67 0.00035904
*CONN
*I *68:Y O *D OAI21X1
*I *69:A I *L 0.0177118
*I *70:A I *L 0.0134094
*CAP
1 67_1 0
2 67_2 0.00017568
3 67_3 0.00018336
*RES
1 *68:Y 67_1 0
2 67_1 67_2 2.42667
3 67_2 *69:A 0
4 67_1 67_3 2.42667
5 67_3 *70:A 0
*END
*D_NET *71 0.00036624
*CONN
*I *72:Y O *D OAI21X1
*I *73:A I *L 0.0134094
*I *74:A I *L 0.0177118
*CAP
1 71_1 0.00023664
2 71_2 0.0001296
*RES
1 *72:Y 71_1 2.70667
2 71_1 *73:A 0
3 71_1 71_2 0.84
4 71_2 *74:A 0
*END
*D_NET *75 0.00015
*CONN
*I *76:Y O *D OAI21X1
*I *77:A I *L 0.0177118
*I *78:A I *L 0.0134094
*CAP
1 75_1 2.688e-05
2 75_2 4.92e-05
3 75_3 7.392e-05
*RES
1 *76:Y 75_1 0.746667
2 75_1 75_2 0.7
3 75_2 *77:A 0
4 75_1 75_3 2.05333
5 75_3 *78:A 0
*END
*D_NET *79 0.0005688
*CONN
*I *80:Y O *D OAI21X1
*I *81:A I *L 0.0177118
*I *82:A I *L 0.0134094
*CAP
1 79_1 0.00026448
2 79_2 2.04e-05
3 79_3 0.00028392
*RES
1 *80:Y 79_1 4.01333
2 79_1 79_2 0.233333
3 79_2 *81:A 0
4 79_2 79_3 5.55333
5 79_3 *82:A 0
*END
*D_NET *83 0.00019032
*CONN
*I *84:Y O *D OAI21X1
*I *85:A I *L 0.0134094
*I *86:A I *L 0.0177118
*CAP
1 83_1 0.00010752
2 83_2 3.36e-05
3 83_3 4.92e-05
*RES
1 *84:Y 83_1 2.98667
2 83_1 83_2 0.933333
3 83_2 *85:A 0
4 83_1 83_3 0.7
5 83_3 *86:A 0
*END
*D_NET *87 0.0001656
*CONN
*I *88:Y O *D OAI21X1
*I *89:A I *L 0.0177118
*I *90:A I *L 0.0134094
*CAP
1 87_1 8.448e-05
2 87_2 0
3 87_3 8.112e-05
*RES
1 *88:Y 87_1 1.12
2 87_1 87_2 0
3 87_2 *89:A 0
4 87_1 87_3 1.58667
5 87_3 *90:A 0
*END
*D_NET *91 0.00029112
*CONN
*I *92:Y O *D OAI21X1
*I *93:A I *L 0.0134094
*I *94:A I *L 0.0177118
*CAP
1 91_1 0.00014832
2 91_2 0
3 91_3 0.0001428
*RES
1 *92:Y 91_1 3.45333
2 91_1 91_2 0
3 91_2 *93:A 0
4 91_2 91_3 1.63333
5 91_3 *94:A 0
*END
*D_NET *95 0.00042672
*CONN
*I *96:Y O *D OAI21X1
*I *97:A I *L 0.0177118
*I *98:A I *L 0.0134094
*CAP
1 95_1 0.00023088
2 95_2 2.04e-05
3 95_3 0.00017544
*RES
1 *96:Y 95_1 3.08
2 95_1 95_2 0.233333
3 95_2 *97:A 0
4 95_2 95_3 2.00667
5 95_3 *98:A 0
*END
*D_NET *99 0.00017232
*CONN
*I *100:Y O *D OAI21X1
*I *101:A I *L 0.0177118
*I *102:A I *L 0.0134094
*CAP
1 99_1 8.448e-05
2 99_2 0
3 99_3 8.784e-05
*RES
1 *100:Y 99_1 1.12
2 99_1 99_2 0
3 99_2 *101:A 0
4 99_1 99_3 1.77333
5 99_3 *102:A 0
*END
*D_NET *103 0.00020736
*CONN
*I *104:Y O *D OAI21X1
*I *105:A I *L 0.0177118
*I *106:A I *L 0.0134094
*CAP
1 103_1 7.776e-05
2 103_2 0.0001296
*RES
1 *104:Y 103_1 0.933333
2 103_1 *105:A 0
3 103_1 103_2 0.84
4 103_2 *106:A 0
*END
*D_NET *107 0.00052128
*CONN
*P *107 O
*I *108:A I *L 0.0134094
*I *109:A I *L 0.0177118
*CAP
1 107_1 0.00026928
2 107_2 7.2e-05
3 107_3 0.00018
*RES
1 *107 107_1 3.08
2 107_1 107_2 0.466667
3 107_2 *108:A 0
4 107_1 107_3 1.16667
5 107_3 *109:A 0
*END
*D_NET *110 9.624e-05
*CONN
*P *110 O
*I *111:A I *L 0.0177118
*I *112:A I *L 0.0134094
*CAP
1 110_1 2.016e-05
2 110_2 4.92e-05
3 110_3 2.688e-05
*RES
1 *110 110_1 0.56
2 110_1 110_2 0.7
3 110_2 *111:A 0
4 110_1 110_3 0.746667
5 110_3 *112:A 0
*END
*D_NET *113 0.00039912
*CONN
*P *113 O
*I *114:A I *L 0.0177118
*I *115:A I *L 0.0134094
*CAP
1 113_1 0.00021624
2 113_2 2.04e-05
3 113_3 0.00016248
*RES
1 *113 113_1 2.47333
2 113_1 113_2 0.233333
3 113_2 *114:A 0
4 113_2 113_3 2.84667
5 113_3 *115:A 0
*END
*D_NET *116 8.64e-05
*CONN
*I *117:Y O *D INVX1
*I *118:B I *L 0.0270702
*CAP
1 116_1 8.64e-05
*RES
1 *117:Y 116_1 0.56
2 116_1 *118:B 0
*END
*D_NET *119 0.0002376
*CONN
*I *120:Y O *D NAND2X1
*I *121:C I *L 0.0180101
*CAP
1 119_1 0.0002376
*RES
1 *120:Y 119_1 3.26667
2 119_1 *121:C 0
*END
*D_NET *122 8.64e-05
*CONN
*I *123:Y O *D INVX1
*I *124:B I *L 0.0270702
*CAP
1 122_1 8.64e-05
*RES
1 *123:Y 122_1 0.56
2 122_1 *124:B 0
*END
*D_NET *125 0.0001968
*CONN
*I *126:Y O *D NAND2X1
*I *127:C I *L 0.0180101
*CAP
1 125_1 0.0001968
*RES
1 *126:Y 125_1 2.8
2 125_1 *127:C 0
*END
*D_NET *128 5.76e-05
*CONN
*I *129:Y O *D OAI21X1
*I *130:A I *L 0.0134094
*CAP
1 128_1 5.76e-05
*RES
1 *129:Y 128_1 0.373333
2 128_1 *130:A 0
*END
*D_NET *131 8.64e-05
*CONN
*I *132:Y O *D INVX1
*I *133:B I *L 0.0270702
*CAP
1 131_1 8.64e-05
*RES
1 *132:Y 131_1 0.56
2 131_1 *133:B 0
*END
*D_NET *134 0.0001632
*CONN
*I *135:Y O *D NAND2X1
*I *136:C I *L 0.0180101
*CAP
1 134_1 0.0001632
*RES
1 *135:Y 134_1 1.86667
2 134_1 *136:C 0
*END
*D_NET *137 0.0001428
*CONN
*I *138:Y O *D OAI21X1
*I *139:A I *L 0.0134094
*CAP
1 137_1 0.0001428
*RES
1 *138:Y 137_1 1.63333
2 137_1 *139:A 0
*END
*D_NET *140 5.76e-05
*CONN
*I *141:Y O *D OAI21X1
*I *142:A I *L 0.0134094
*CAP
1 140_1 5.76e-05
*RES
1 *141:Y 140_1 0.373333
2 140_1 *142:A 0
*END
*D_NET *143 8.64e-05
*CONN
*I *144:Y O *D INVX1
*I *145:B I *L 0.0270702
*CAP
1 143_1 8.64e-05
*RES
1 *144:Y 143_1 0.56
2 143_1 *145:B 0
*END
*D_NET *146 0.0001584
*CONN
*I *147:Y O *D NAND2X1
*I *148:C I *L 0.0180101
*CAP
1 146_1 0.0001584
*RES
1 *147:Y 146_1 1.02667
2 146_1 *148:C 0
*END
*D_NET *149 8.64e-05
*CONN
*I *150:Y O *D INVX1
*I *151:B I *L 0.0270702
*CAP
1 149_1 8.64e-05
*RES
1 *150:Y 149_1 0.56
2 149_1 *151:B 0
*END
*D_NET *152 0.0002724
*CONN
*I *153:Y O *D NAND2X1
*I *154:C I *L 0.0180101
*CAP
1 152_1 0.0002724
*RES
1 *153:Y 152_1 2.47333
2 152_1 *154:C 0
*END
*D_NET *155 0.000132
*CONN
*I *156:Y O *D INVX1
*I *157:B I *L 0.0270702
*CAP
1 155_1 0.000132
*RES
1 *156:Y 155_1 1.77333
2 155_1 *157:B 0
*END
*D_NET *158 0.0001584
*CONN
*I *159:Y O *D NAND2X1
*I *160:C I *L 0.0180101
*CAP
1 158_1 0.0001584
*RES
1 *159:Y 158_1 1.02667
2 158_1 *160:C 0
*END
*D_NET *161 6.768e-05
*CONN
*I *162:Y O *D INVX1
*I *163:B I *L 0.0270702
*CAP
1 161_1 6.768e-05
*RES
1 *162:Y 161_1 1.21333
2 161_1 *163:B 0
*END
*D_NET *164 7.44e-05
*CONN
*I *165:Y O *D NAND2X1
*I *166:C I *L 0.0180101
*CAP
1 164_1 7.44e-05
*RES
1 *165:Y 164_1 1.4
2 164_1 *166:C 0
*END
*D_NET *167 0.00010128
*CONN
*I *168:Y O *D INVX1
*I *169:B I *L 0.0270702
*CAP
1 167_1 0.00010128
*RES
1 *168:Y 167_1 2.14667
2 167_1 *169:B 0
*END
*D_NET *170 0.0001632
*CONN
*I *171:Y O *D NAND2X1
*I *172:C I *L 0.0180101
*CAP
1 170_1 0.0001632
*RES
1 *171:Y 170_1 1.86667
2 170_1 *172:C 0
*END
*D_NET *173 8.64e-05
*CONN
*I *174:Y O *D INVX1
*I *175:B I *L 0.0270702
*CAP
1 173_1 8.64e-05
*RES
1 *174:Y 173_1 0.56
2 173_1 *175:B 0
*END
*D_NET *176 0.0001584
*CONN
*I *177:Y O *D NAND2X1
*I *178:C I *L 0.0180101
*CAP
1 176_1 0.0001584
*RES
1 *177:Y 176_1 1.02667
2 176_1 *178:C 0
*END
*D_NET *179 8.64e-05
*CONN
*I *180:Y O *D INVX1
*I *181:B I *L 0.0270702
*CAP
1 179_1 8.64e-05
*RES
1 *180:Y 179_1 0.56
2 179_1 *181:B 0
*END
*D_NET *182 0.00018336
*CONN
*I *183:Y O *D NAND2X1
*I *184:C I *L 0.0180101
*CAP
1 182_1 0.00018336
*RES
1 *183:Y 182_1 2.42667
2 182_1 *184:C 0
*END
*D_NET *185 8.64e-05
*CONN
*I *186:Y O *D OAI21X1
*I *187:A I *L 0.0134147
*CAP
1 185_1 8.64e-05
*RES
1 *186:Y 185_1 0.56
2 185_1 *187:A 0
*END
*D_NET *188 7.44e-05
*CONN
*I *189:Y O *D BUFX2
*P *188 I
*CAP
1 188_1 7.44e-05
*RES
1 *189:Y 188_1 1.4
2 188_1 *188 0
*END
*D_NET *190 0.00031944
*CONN
*I *191:Y O *D OAI21X1
*I *192:A I *L 0.0134147
*CAP
1 190_1 0.00031944
*RES
1 *191:Y 190_1 2.94
2 190_1 *192:A 0
*END
*D_NET *193 0.00013056
*CONN
*I *194:Y O *D BUFX2
*P *193 I
*CAP
1 193_1 0.00013056
*RES
1 *194:Y 193_1 1.49333
2 193_1 *193 0
*END
*D_NET *195 8.64e-05
*CONN
*I *196:Y O *D OAI21X1
*I *197:A I *L 0.0134147
*CAP
1 195_1 8.64e-05
*RES
1 *196:Y 195_1 0.56
2 195_1 *197:A 0
*END
*D_NET *198 0.00011424
*CONN
*I *199:Y O *D BUFX2
*P *198 I
*CAP
1 198_1 0.00011424
*RES
1 *199:Y 198_1 1.30667
2 198_1 *198 0
*END
*D_NET *200 7.776e-05
*CONN
*I *201:Y O *D OAI21X1
*I *202:A I *L 0.0134147
*CAP
1 200_1 7.776e-05
*RES
1 *201:Y 200_1 0.933333
2 200_1 *202:A 0
*END
*D_NET *203 6.096e-05
*CONN
*I *204:Y O *D BUFX2
*P *203 I
*CAP
1 203_1 6.096e-05
*RES
1 *204:Y 203_1 1.02667
2 203_1 *203 0
*END
*D_NET *205 7.776e-05
*CONN
*I *206:Y O *D OAI21X1
*I *207:A I *L 0.0134147
*CAP
1 205_1 7.776e-05
*RES
1 *206:Y 205_1 0.933333
2 205_1 *207:A 0
*END
*D_NET *208 6.096e-05
*CONN
*I *209:Y O *D BUFX2
*P *208 I
*CAP
1 208_1 6.096e-05
*RES
1 *209:Y 208_1 1.02667
2 208_1 *208 0
*END
*D_NET *210 9.12e-05
*CONN
*I *211:Y O *D OAI21X1
*I *212:A I *L 0.0134147
*CAP
1 210_1 9.12e-05
*RES
1 *211:Y 210_1 1.30667
2 210_1 *212:A 0
*END
*D_NET *213 0.00011424
*CONN
*I *214:Y O *D BUFX2
*P *213 I
*CAP
1 213_1 0.00011424
*RES
1 *214:Y 213_1 1.30667
2 213_1 *213 0
*END
*D_NET *215 9.456e-05
*CONN
*I *216:Y O *D OAI21X1
*I *217:A I *L 0.0134147
*CAP
1 215_1 9.456e-05
*RES
1 *216:Y 215_1 1.96
2 215_1 *217:A 0
*END
*D_NET *218 8.112e-05
*CONN
*I *219:Y O *D BUFX2
*P *218 I
*CAP
1 218_1 8.112e-05
*RES
1 *219:Y 218_1 1.58667
2 218_1 *218 0
*END
*D_NET *220 0.000408
*CONN
*I *221:Y O *D OAI21X1
*I *222:A I *L 0.0134147
*CAP
1 220_1 0.000408
*RES
1 *221:Y 220_1 4.66667
2 220_1 *222:A 0
*END
*D_NET *223 2.016e-05
*CONN
*I *224:Y O *D BUFX2
*P *223 I
*CAP
1 223_1 2.016e-05
*RES
1 *224:Y 223_1 0.56
2 223_1 *223 0
*END
*D_NET *225 8.64e-05
*CONN
*I *226:Y O *D INVX1
*I *227:B I *L 0.0270702
*CAP
1 225_1 8.64e-05
*RES
1 *226:Y 225_1 0.56
2 225_1 *227:B 0
*END
*D_NET *228 0.00017544
*CONN
*I *229:Y O *D NAND2X1
*I *230:C I *L 0.0180101
*CAP
1 228_1 0.00017544
*RES
1 *229:Y 228_1 2.00667
2 228_1 *230:C 0
*END
*D_NET *231 8.64e-05
*CONN
*I *232:Y O *D INVX1
*I *233:B I *L 0.0270702
*CAP
1 231_1 8.64e-05
*RES
1 *232:Y 231_1 0.56
2 231_1 *233:B 0
*END
*D_NET *234 0.0001584
*CONN
*I *235:Y O *D NAND2X1
*I *236:C I *L 0.0180101
*CAP
1 234_1 0.0001584
*RES
1 *235:Y 234_1 1.02667
2 234_1 *236:C 0
*END
*D_NET *237 8.64e-05
*CONN
*I *238:Y O *D INVX1
*I *239:B I *L 0.0270702
*CAP
1 237_1 8.64e-05
*RES
1 *238:Y 237_1 0.56
2 237_1 *239:B 0
*END
*D_NET *240 0.0001632
*CONN
*I *241:Y O *D NAND2X1
*I *242:C I *L 0.0180101
*CAP
1 240_1 0.0001632
*RES
1 *241:Y 240_1 1.86667
2 240_1 *242:C 0
*END
*D_NET *243 0.0002736
*CONN
*I *244:Y O *D INVX1
*I *245:B I *L 0.0270702
*CAP
1 243_1 0.0002736
*RES
1 *244:Y 243_1 4.48
2 243_1 *245:B 0
*END
*D_NET *246 0.00016464
*CONN
*I *247:Y O *D NAND2X1
*I *248:C I *L 0.0180101
*CAP
1 246_1 0.00016464
*RES
1 *247:Y 246_1 1.97333
2 246_1 *248:C 0
*END
*D_NET *249 6.768e-05
*CONN
*I *250:Y O *D INVX1
*I *251:B I *L 0.0270702
*CAP
1 249_1 6.768e-05
*RES
1 *250:Y 249_1 1.21333
2 249_1 *251:B 0
*END
*D_NET *252 0.00021048
*CONN
*I *253:Y O *D NAND2X1
*I *254:C I *L 0.0180101
*CAP
1 252_1 0.00021048
*RES
1 *253:Y 252_1 2.84667
2 252_1 *254:C 0
*END
*D_NET *255 8.64e-05
*CONN
*I *256:Y O *D INVX1
*I *257:B I *L 0.0270702
*CAP
1 255_1 8.64e-05
*RES
1 *256:Y 255_1 0.56
2 255_1 *257:B 0
*END
*D_NET *258 0.00022392
*CONN
*I *259:Y O *D NAND2X1
*I *260:C I *L 0.0180101
*CAP
1 258_1 0.00022392
*RES
1 *259:Y 258_1 3.22
2 258_1 *260:C 0
*END
*D_NET *261 8.64e-05
*CONN
*I *262:Y O *D INVX1
*I *263:B I *L 0.0270702
*CAP
1 261_1 8.64e-05
*RES
1 *262:Y 261_1 0.56
2 261_1 *263:B 0
*END
*D_NET *264 0.0003804
*CONN
*I *265:Y O *D NAND2X1
*I *266:C I *L 0.0180101
*CAP
1 264_1 0.0003804
*RES
1 *265:Y 264_1 4.9
2 264_1 *266:C 0
*END
*D_NET *267 7.776e-05
*CONN
*I *268:Y O *D INVX1
*I *269:B I *L 0.0270702
*CAP
1 267_1 7.776e-05
*RES
1 *268:Y 267_1 0.933333
2 267_1 *269:B 0
*END
*D_NET *270 0.000258
*CONN
*I *271:Y O *D NAND2X1
*I *272:C I *L 0.0180101
*CAP
1 270_1 0.000258
*RES
1 *271:Y 270_1 3.5
2 270_1 *272:C 0
*END
*D_NET *273 0.00010176
*CONN
*P *273 O
*I *274:A I *L 0.0134094
*CAP
1 273_1 0.00010176
*RES
1 *273 273_1 1.49333
2 273_1 *274:A 0
*END
*D_NET *275 8.64e-05
*CONN
*I *276:Y O *D INVX1
*I *277:B I *L 0.0270702
*CAP
1 275_1 8.64e-05
*RES
1 *276:Y 275_1 0.56
2 275_1 *277:B 0
*END
*D_NET *278 6.048e-05
*CONN
*I *279:Y O *D NAND2X1
*I *280:C I *L 0.0180101
*CAP
1 278_1 6.048e-05
*RES
1 *279:Y 278_1 1.68
2 278_1 *280:C 0
*END
*D_NET *281 8.136e-05
*CONN
*P *281 O
*I *282:A I *L 0.0134094
*CAP
1 281_1 8.136e-05
*RES
1 *281 281_1 1.26
2 281_1 *282:A 0
*END
*D_NET *283 8.64e-05
*CONN
*I *284:Y O *D INVX1
*I *285:B I *L 0.0270702
*CAP
1 283_1 8.64e-05
*RES
1 *284:Y 283_1 0.56
2 283_1 *285:B 0
*END
*D_NET *286 0.0001968
*CONN
*I *287:Y O *D NAND2X1
*I *288:C I *L 0.0180101
*CAP
1 286_1 0.0001968
*RES
1 *287:Y 286_1 2.8
2 286_1 *288:C 0
*END
*D_NET *289 6.096e-05
*CONN
*P *289 O
*I *290:A I *L 0.0134094
*CAP
1 289_1 6.096e-05
*RES
1 *289 289_1 1.02667
2 289_1 *290:A 0
*END
*D_NET *291 0.00012096
*CONN
*I *292:Y O *D INVX1
*I *293:B I *L 0.0270702
*CAP
1 291_1 0.00012096
*RES
1 *292:Y 291_1 3.36
2 291_1 *293:B 0
*END
*D_NET *294 0.0001632
*CONN
*I *295:Y O *D NAND2X1
*I *296:C I *L 0.0180101
*CAP
1 294_1 0.0001632
*RES
1 *295:Y 294_1 1.86667
2 294_1 *296:C 0
*END
*D_NET *297 0.00023664
*CONN
*P *297 O
*I *298:A I *L 0.0134094
*CAP
1 297_1 0.00023664
*RES
1 *297 297_1 2.70667
2 297_1 *298:A 0
*END
*D_NET *299 0.0001152
*CONN
*I *300:Y O *D INVX1
*I *301:B I *L 0.0270702
*CAP
1 299_1 0.0001152
*RES
1 *300:Y 299_1 0.746667
2 299_1 *301:B 0
*END
*D_NET *302 0.0001584
*CONN
*I *303:Y O *D NAND2X1
*I *304:C I *L 0.0180101
*CAP
1 302_1 0.0001584
*RES
1 *303:Y 302_1 1.02667
2 302_1 *304:C 0
*END
*D_NET *305 4.032e-05
*CONN
*I *306:Y O *D INVX1
*I *307:B I *L 0.0270702
*CAP
1 305_1 4.032e-05
*RES
1 *306:Y 305_1 1.12
2 305_1 *307:B 0
*END
*D_NET *308 0.00018336
*CONN
*I *309:Y O *D NAND2X1
*I *310:C I *L 0.0180101
*CAP
1 308_1 0.00018336
*RES
1 *309:Y 308_1 2.42667
2 308_1 *310:C 0
*END
*D_NET *311 0.0002568
*CONN
*I *312:Y O *D INVX1
*I *313:B I *L 0.0270702
*CAP
1 311_1 0.0002568
*RES
1 *312:Y 311_1 4.01333
2 311_1 *313:B 0
*END
*D_NET *314 0.0001584
*CONN
*I *315:Y O *D NAND2X1
*I *316:C I *L 0.0180101
*CAP
1 314_1 0.0001584
*RES
1 *315:Y 314_1 1.02667
2 314_1 *316:C 0
*END
